787
graphen_cuted_sheet
C 0 0 0
C 1.68702 0 0
C 1.26526 0.7305 0
C 2.95228 0.7305 0
C 2.53053 0 0
C 4.21754 0 0
C 1.26526 2.1915 0
C 2.95228 2.1915 0
C 2.53053 1.461 0
C 4.21754 1.461 0
C 3.79579 0.7305 0
C 5.48281 0.7305 0
C 5.06105 0 0
C 6.74807 0 0
C 6.32632 -0.7305 0
C 8.01333 -0.7305 0
C 1.26526 3.6525 0
C 2.95228 3.6525 0
C 2.53053 2.922 0
C 4.21754 2.922 0
C 3.79579 2.1915 0
C 5.48281 2.1915 0
C 5.06105 1.461 0
C 6.74807 1.461 0
C 6.32632 0.7305 0
C 8.01333 0.7305 0
C 7.59158 0 0
C 9.2786 0 0
C 8.85684 -0.7305 0
C 10.5439 -0.7305 0
C 10.1221 -1.461 0
C 11.8091 -1.461 0
C 1.26526 5.1135 0
C 2.95228 5.1135 0
C 2.53053 4.383 0
C 4.21754 4.383 0
C 3.79579 3.6525 0
C 5.48281 3.6525 0
C 5.06105 2.922 0
C 6.74807 2.922 0
C 6.32632 2.1915 0
C 8.01333 2.1915 0
C 7.59158 1.461 0
C 9.2786 1.461 0
C 8.85684 0.7305 0
C 10.5439 0.7305 0
C 10.1221 0 0
C 11.8091 0 0
C 11.3874 -0.7305 0
C 13.0744 -0.7305 0
C 12.6526 -1.461 0
C 14.3396 -1.461 0
C 13.9179 -2.1915 0
C 15.6049 -2.1915 0
C 2.53053 5.844 0
C 4.21754 5.844 0
C 3.79579 5.1135 0
C 5.48281 5.1135 0
C 5.06105 4.383 0
C 6.74807 4.383 0
C 6.32632 3.6525 0
C 8.01333 3.6525 0
C 7.59158 2.922 0
C 9.2786 2.922 0
C 8.85684 2.1915 0
C 10.5439 2.1915 0
C 10.1221 1.461 0
C 11.8091 1.461 0
C 11.3874 0.7305 0
C 13.0744 0.7305 0
C 12.6526 0 0
C 14.3396 0 0
C 13.9179 -0.7305 0
C 15.6049 -0.7305 0
C 15.1832 -1.461 0
C 16.8702 -1.461 0
C 16.4484 -2.1915 0
C 18.1354 -2.1915 0
C 17.7137 -2.922 0
C 19.4007 -2.922 0
C 2.53053 7.305 0
C 4.21754 7.305 0
C 3.79579 6.5745 0
C 5.48281 6.5745 0
C 5.06105 5.844 0
C 6.74807 5.844 0
C 6.32632 5.1135 0
C 8.01333 5.1135 0
C 7.59158 4.383 0
C 9.2786 4.383 0
C 8.85684 3.6525 0
C 10.5439 3.6525 0
C 10.1221 2.922 0
C 11.8091 2.922 0
C 11.3874 2.1915 0
C 13.0744 2.1915 0
C 12.6526 1.461 0
C 14.3396 1.461 0
C 13.9179 0.7305 0
C 15.6049 0.7305 0
C 15.1832 0 0
C 16.8702 0 0
C 16.4484 -0.7305 0
C 18.1354 -0.7305 0
C 17.7137 -1.461 0
C 19.4007 -1.461 0
C 18.9789 -2.1915 0
C 20.666 -2.1915 0
C 20.2442 -2.922 0
C 21.9312 -2.922 0
C 21.5095 -3.6525 0
C 23.1965 -3.6525 0
C 24.4618 -4.383 0
C 2.53053 8.766 0
C 4.21754 8.766 0
C 3.79579 8.0355 0
C 5.48281 8.0355 0
C 5.06105 7.305 0
C 6.74807 7.305 0
C 6.32632 6.5745 0
C 8.01333 6.5745 0
C 7.59158 5.844 0
C 9.2786 5.844 0
C 8.85684 5.1135 0
C 10.5439 5.1135 0
C 10.1221 4.383 0
C 11.8091 4.383 0
C 11.3874 3.6525 0
C 13.0744 3.6525 0
C 12.6526 2.922 0
C 14.3396 2.922 0
C 13.9179 2.1915 0
C 15.6049 2.1915 0
C 15.1832 1.461 0
C 16.8702 1.461 0
C 16.4484 0.7305 0
C 18.1354 0.7305 0
C 17.7137 0 0
C 19.4007 0 0
C 18.9789 -0.7305 0
C 20.666 -0.7305 0
C 20.2442 -1.461 0
C 21.9312 -1.461 0
C 21.5095 -2.1915 0
C 23.1965 -2.1915 0
C 22.7747 -2.922 0
C 24.4618 -2.922 0
C 24.04 -3.6525 0
C 25.727 -3.6525 0
C 25.3053 -4.383 0
C 26.9923 -4.383 0
C 2.53053 10.227 0
C 4.21754 10.227 0
C 3.79579 9.4965 0
C 5.48281 9.4965 0
C 5.06105 8.766 0
C 6.74807 8.766 0
C 6.32632 8.0355 0
C 8.01333 8.0355 0
C 7.59158 7.305 0
C 9.2786 7.305 0
C 8.85684 6.5745 0
C 10.5439 6.5745 0
C 10.1221 5.844 0
C 11.8091 5.844 0
C 11.3874 5.1135 0
C 13.0744 5.1135 0
C 12.6526 4.383 0
C 14.3396 4.383 0
C 13.9179 3.6525 0
C 15.6049 3.6525 0
C 15.1832 2.922 0
C 16.8702 2.922 0
C 16.4484 2.1915 0
C 18.1354 2.1915 0
C 17.7137 1.461 0
C 19.4007 1.461 0
C 18.9789 0.7305 0
C 20.666 0.7305 0
C 20.2442 0 0
C 21.9312 0 0
C 21.5095 -0.7305 0
C 23.1965 -0.7305 0
C 22.7747 -1.461 0
C 24.4618 -1.461 0
C 24.04 -2.1915 0
C 25.727 -2.1915 0
C 25.3053 -2.922 0
C 26.9923 -2.922 0
C 26.5705 -3.6525 0
C 28.2575 -3.6525 0
C 2.53053 11.688 0
C 4.21754 11.688 0
C 3.79579 10.9575 0
C 5.48281 10.9575 0
C 5.06105 10.227 0
C 6.74807 10.227 0
C 6.32632 9.4965 0
C 8.01333 9.4965 0
C 7.59158 8.766 0
C 9.2786 8.766 0
C 8.85684 8.0355 0
C 10.5439 8.0355 0
C 10.1221 7.305 0
C 11.8091 7.305 0
C 11.3874 6.5745 0
C 13.0744 6.5745 0
C 12.6526 5.844 0
C 14.3396 5.844 0
C 13.9179 5.1135 0
C 15.6049 5.1135 0
C 15.1832 4.383 0
C 16.8702 4.383 0
C 16.4484 3.6525 0
C 18.1354 3.6525 0
C 17.7137 2.922 0
C 19.4007 2.922 0
C 18.9789 2.1915 0
C 20.666 2.1915 0
C 20.2442 1.461 0
C 21.9312 1.461 0
C 21.5095 0.7305 0
C 23.1965 0.7305 0
C 22.7747 0 0
C 24.4618 0 0
C 24.04 -0.7305 0
C 25.727 -0.7305 0
C 25.3053 -1.461 0
C 26.9923 -1.461 0
C 26.5705 -2.1915 0
C 28.2575 -2.1915 0
C 3.79579 12.4185 0
C 5.48281 12.4185 0
C 5.06105 11.688 0
C 6.74807 11.688 0
C 6.32632 10.9575 0
C 8.01333 10.9575 0
C 7.59158 10.227 0
C 9.2786 10.227 0
C 8.85684 9.4965 0
C 10.5439 9.4965 0
C 10.1221 8.766 0
C 11.8091 8.766 0
C 11.3874 8.0355 0
C 13.0744 8.0355 0
C 12.6526 7.305 0
C 14.3396 7.305 0
C 13.9179 6.5745 0
C 15.6049 6.5745 0
C 15.1832 5.844 0
C 16.8702 5.844 0
C 16.4484 5.1135 0
C 18.1354 5.1135 0
C 17.7137 4.383 0
C 19.4007 4.383 0
C 18.9789 3.6525 0
C 20.666 3.6525 0
C 20.2442 2.922 0
C 21.9312 2.922 0
C 21.5095 2.1915 0
C 23.1965 2.1915 0
C 22.7747 1.461 0
C 24.4618 1.461 0
C 24.04 0.7305 0
C 25.727 0.7305 0
C 25.3053 0 0
C 26.9923 0 0
C 26.5705 -0.7305 0
C 28.2575 -0.7305 0
C 3.79579 13.8795 0
C 5.48281 13.8795 0
C 5.06105 13.149 0
C 6.74807 13.149 0
C 6.32632 12.4185 0
C 8.01333 12.4185 0
C 7.59158 11.688 0
C 9.2786 11.688 0
C 8.85684 10.9575 0
C 10.5439 10.9575 0
C 10.1221 10.227 0
C 11.8091 10.227 0
C 11.3874 9.4965 0
C 13.0744 9.4965 0
C 12.6526 8.766 0
C 14.3396 8.766 0
C 13.9179 8.0355 0
C 15.6049 8.0355 0
C 15.1832 7.305 0
C 16.8702 7.305 0
C 16.4484 6.5745 0
C 18.1354 6.5745 0
C 17.7137 5.844 0
C 19.4007 5.844 0
C 18.9789 5.1135 0
C 20.666 5.1135 0
C 20.2442 4.383 0
C 21.9312 4.383 0
C 21.5095 3.6525 0
C 23.1965 3.6525 0
C 22.7747 2.922 0
C 24.4618 2.922 0
C 24.04 2.1915 0
C 25.727 2.1915 0
C 25.3053 1.461 0
C 26.9923 1.461 0
C 26.5705 0.7305 0
C 28.2575 0.7305 0
C 3.79579 15.3405 0
C 5.48281 15.3405 0
C 5.06105 14.61 0
C 6.74807 14.61 0
C 6.32632 13.8795 0
C 8.01333 13.8795 0
C 7.59158 13.149 0
C 9.2786 13.149 0
C 8.85684 12.4185 0
C 10.5439 12.4185 0
C 10.1221 11.688 0
C 11.8091 11.688 0
C 11.3874 10.9575 0
C 13.0744 10.9575 0
C 12.6526 10.227 0
C 14.3396 10.227 0
C 13.9179 9.4965 0
C 15.6049 9.4965 0
C 15.1832 8.766 0
C 16.8702 8.766 0
C 16.4484 8.0355 0
C 18.1354 8.0355 0
C 17.7137 7.305 0
C 19.4007 7.305 0
C 18.9789 6.5745 0
C 20.666 6.5745 0
C 20.2442 5.844 0
C 21.9312 5.844 0
C 21.5095 5.1135 0
C 23.1965 5.1135 0
C 22.7747 4.383 0
C 24.4618 4.383 0
C 24.04 3.6525 0
C 25.727 3.6525 0
C 25.3053 2.922 0
C 26.9923 2.922 0
C 26.5705 2.1915 0
C 28.2575 2.1915 0
C 27.8358 1.461 0
C 29.5228 1.461 0
C 3.79579 16.8015 0
C 5.48281 16.8015 0
C 5.06105 16.071 0
C 6.74807 16.071 0
C 6.32632 15.3405 0
C 8.01333 15.3405 0
C 7.59158 14.61 0
C 9.2786 14.61 0
C 8.85684 13.8795 0
C 10.5439 13.8795 0
C 10.1221 13.149 0
C 11.8091 13.149 0
C 11.3874 12.4185 0
C 13.0744 12.4185 0
C 12.6526 11.688 0
C 14.3396 11.688 0
C 13.9179 10.9575 0
C 15.6049 10.9575 0
C 15.1832 10.227 0
C 16.8702 10.227 0
C 16.4484 9.4965 0
C 18.1354 9.4965 0
C 17.7137 8.766 0
C 19.4007 8.766 0
C 18.9789 8.0355 0
C 20.666 8.0355 0
C 20.2442 7.305 0
C 21.9312 7.305 0
C 21.5095 6.5745 0
C 23.1965 6.5745 0
C 22.7747 5.844 0
C 24.4618 5.844 0
C 24.04 5.1135 0
C 25.727 5.1135 0
C 25.3053 4.383 0
C 26.9923 4.383 0
C 26.5705 3.6525 0
C 28.2575 3.6525 0
C 27.8358 2.922 0
C 29.5228 2.922 0
C 3.79579 18.2625 0
C 5.48281 18.2625 0
C 5.06105 17.532 0
C 6.74807 17.532 0
C 6.32632 16.8015 0
C 8.01333 16.8015 0
C 7.59158 16.071 0
C 9.2786 16.071 0
C 8.85684 15.3405 0
C 10.5439 15.3405 0
C 10.1221 14.61 0
C 11.8091 14.61 0
C 11.3874 13.8795 0
C 13.0744 13.8795 0
C 12.6526 13.149 0
C 14.3396 13.149 0
C 13.9179 12.4185 0
C 15.6049 12.4185 0
C 15.1832 11.688 0
C 16.8702 11.688 0
C 16.4484 10.9575 0
C 18.1354 10.9575 0
C 17.7137 10.227 0
C 19.4007 10.227 0
C 18.9789 9.4965 0
C 20.666 9.4965 0
C 20.2442 8.766 0
C 21.9312 8.766 0
C 21.5095 8.0355 0
C 23.1965 8.0355 0
C 22.7747 7.305 0
C 24.4618 7.305 0
C 24.04 6.5745 0
C 25.727 6.5745 0
C 25.3053 5.844 0
C 26.9923 5.844 0
C 26.5705 5.1135 0
C 28.2575 5.1135 0
C 27.8358 4.383 0
C 29.5228 4.383 0
C 5.06105 18.993 0
C 6.74807 18.993 0
C 6.32632 18.2625 0
C 8.01333 18.2625 0
C 7.59158 17.532 0
C 9.2786 17.532 0
C 8.85684 16.8015 0
C 10.5439 16.8015 0
C 10.1221 16.071 0
C 11.8091 16.071 0
C 11.3874 15.3405 0
C 13.0744 15.3405 0
C 12.6526 14.61 0
C 14.3396 14.61 0
C 13.9179 13.8795 0
C 15.6049 13.8795 0
C 15.1832 13.149 0
C 16.8702 13.149 0
C 16.4484 12.4185 0
C 18.1354 12.4185 0
C 17.7137 11.688 0
C 19.4007 11.688 0
C 18.9789 10.9575 0
C 20.666 10.9575 0
C 20.2442 10.227 0
C 21.9312 10.227 0
C 21.5095 9.4965 0
C 23.1965 9.4965 0
C 22.7747 8.766 0
C 24.4618 8.766 0
C 24.04 8.0355 0
C 25.727 8.0355 0
C 25.3053 7.305 0
C 26.9923 7.305 0
C 26.5705 6.5745 0
C 28.2575 6.5745 0
C 27.8358 5.844 0
C 29.5228 5.844 0
C 5.06105 20.454 0
C 6.74807 20.454 0
C 6.32632 19.7235 0
C 8.01333 19.7235 0
C 7.59158 18.993 0
C 9.2786 18.993 0
C 8.85684 18.2625 0
C 10.5439 18.2625 0
C 10.1221 17.532 0
C 11.8091 17.532 0
C 11.3874 16.8015 0
C 13.0744 16.8015 0
C 12.6526 16.071 0
C 14.3396 16.071 0
C 13.9179 15.3405 0
C 15.6049 15.3405 0
C 15.1832 14.61 0
C 16.8702 14.61 0
C 16.4484 13.8795 0
C 18.1354 13.8795 0
C 17.7137 13.149 0
C 19.4007 13.149 0
C 18.9789 12.4185 0
C 20.666 12.4185 0
C 20.2442 11.688 0
C 21.9312 11.688 0
C 21.5095 10.9575 0
C 23.1965 10.9575 0
C 22.7747 10.227 0
C 24.4618 10.227 0
C 24.04 9.4965 0
C 25.727 9.4965 0
C 25.3053 8.766 0
C 26.9923 8.766 0
C 26.5705 8.0355 0
C 28.2575 8.0355 0
C 27.8358 7.305 0
C 29.5228 7.305 0
C 5.06105 21.915 0
C 6.74807 21.915 0
C 6.32632 21.1845 0
C 8.01333 21.1845 0
C 7.59158 20.454 0
C 9.2786 20.454 0
C 8.85684 19.7235 0
C 10.5439 19.7235 0
C 10.1221 18.993 0
C 11.8091 18.993 0
C 11.3874 18.2625 0
C 13.0744 18.2625 0
C 12.6526 17.532 0
C 14.3396 17.532 0
C 13.9179 16.8015 0
C 15.6049 16.8015 0
C 15.1832 16.071 0
C 16.8702 16.071 0
C 16.4484 15.3405 0
C 18.1354 15.3405 0
C 17.7137 14.61 0
C 19.4007 14.61 0
C 18.9789 13.8795 0
C 20.666 13.8795 0
C 20.2442 13.149 0
C 21.9312 13.149 0
C 21.5095 12.4185 0
C 23.1965 12.4185 0
C 22.7747 11.688 0
C 24.4618 11.688 0
C 24.04 10.9575 0
C 25.727 10.9575 0
C 25.3053 10.227 0
C 26.9923 10.227 0
C 26.5705 9.4965 0
C 28.2575 9.4965 0
C 27.8358 8.766 0
C 29.5228 8.766 0
C 29.1011 8.0355 0
C 30.7881 8.0355 0
C 5.06105 23.376 0
C 6.74807 23.376 0
C 6.32632 22.6455 0
C 8.01333 22.6455 0
C 7.59158 21.915 0
C 9.2786 21.915 0
C 8.85684 21.1845 0
C 10.5439 21.1845 0
C 10.1221 20.454 0
C 11.8091 20.454 0
C 11.3874 19.7235 0
C 13.0744 19.7235 0
C 12.6526 18.993 0
C 14.3396 18.993 0
C 13.9179 18.2625 0
C 15.6049 18.2625 0
C 15.1832 17.532 0
C 16.8702 17.532 0
C 16.4484 16.8015 0
C 18.1354 16.8015 0
C 17.7137 16.071 0
C 19.4007 16.071 0
C 18.9789 15.3405 0
C 20.666 15.3405 0
C 20.2442 14.61 0
C 21.9312 14.61 0
C 21.5095 13.8795 0
C 23.1965 13.8795 0
C 22.7747 13.149 0
C 24.4618 13.149 0
C 24.04 12.4185 0
C 25.727 12.4185 0
C 25.3053 11.688 0
C 26.9923 11.688 0
C 26.5705 10.9575 0
C 28.2575 10.9575 0
C 27.8358 10.227 0
C 29.5228 10.227 0
C 29.1011 9.4965 0
C 30.7881 9.4965 0
C 5.06105 24.837 0
C 6.74807 24.837 0
C 6.32632 24.1065 0
C 8.01333 24.1065 0
C 7.59158 23.376 0
C 9.2786 23.376 0
C 8.85684 22.6455 0
C 10.5439 22.6455 0
C 10.1221 21.915 0
C 11.8091 21.915 0
C 11.3874 21.1845 0
C 13.0744 21.1845 0
C 12.6526 20.454 0
C 14.3396 20.454 0
C 13.9179 19.7235 0
C 15.6049 19.7235 0
C 15.1832 18.993 0
C 16.8702 18.993 0
C 16.4484 18.2625 0
C 18.1354 18.2625 0
C 17.7137 17.532 0
C 19.4007 17.532 0
C 18.9789 16.8015 0
C 20.666 16.8015 0
C 20.2442 16.071 0
C 21.9312 16.071 0
C 21.5095 15.3405 0
C 23.1965 15.3405 0
C 22.7747 14.61 0
C 24.4618 14.61 0
C 24.04 13.8795 0
C 25.727 13.8795 0
C 25.3053 13.149 0
C 26.9923 13.149 0
C 26.5705 12.4185 0
C 28.2575 12.4185 0
C 27.8358 11.688 0
C 29.5228 11.688 0
C 29.1011 10.9575 0
C 30.7881 10.9575 0
C 6.32632 25.5675 0
C 8.01333 25.5675 0
C 7.59158 24.837 0
C 9.2786 24.837 0
C 8.85684 24.1065 0
C 10.5439 24.1065 0
C 10.1221 23.376 0
C 11.8091 23.376 0
C 11.3874 22.6455 0
C 13.0744 22.6455 0
C 12.6526 21.915 0
C 14.3396 21.915 0
C 13.9179 21.1845 0
C 15.6049 21.1845 0
C 15.1832 20.454 0
C 16.8702 20.454 0
C 16.4484 19.7235 0
C 18.1354 19.7235 0
C 17.7137 18.993 0
C 19.4007 18.993 0
C 18.9789 18.2625 0
C 20.666 18.2625 0
C 20.2442 17.532 0
C 21.9312 17.532 0
C 21.5095 16.8015 0
C 23.1965 16.8015 0
C 22.7747 16.071 0
C 24.4618 16.071 0
C 24.04 15.3405 0
C 25.727 15.3405 0
C 25.3053 14.61 0
C 26.9923 14.61 0
C 26.5705 13.8795 0
C 28.2575 13.8795 0
C 27.8358 13.149 0
C 29.5228 13.149 0
C 29.1011 12.4185 0
C 30.7881 12.4185 0
C 8.85684 25.5675 0
C 10.5439 25.5675 0
C 10.1221 24.837 0
C 11.8091 24.837 0
C 11.3874 24.1065 0
C 13.0744 24.1065 0
C 12.6526 23.376 0
C 14.3396 23.376 0
C 13.9179 22.6455 0
C 15.6049 22.6455 0
C 15.1832 21.915 0
C 16.8702 21.915 0
C 16.4484 21.1845 0
C 18.1354 21.1845 0
C 17.7137 20.454 0
C 19.4007 20.454 0
C 18.9789 19.7235 0
C 20.666 19.7235 0
C 20.2442 18.993 0
C 21.9312 18.993 0
C 21.5095 18.2625 0
C 23.1965 18.2625 0
C 22.7747 17.532 0
C 24.4618 17.532 0
C 24.04 16.8015 0
C 25.727 16.8015 0
C 25.3053 16.071 0
C 26.9923 16.071 0
C 26.5705 15.3405 0
C 28.2575 15.3405 0
C 27.8358 14.61 0
C 29.5228 14.61 0
C 29.1011 13.8795 0
C 30.7881 13.8795 0
C 12.6526 24.837 0
C 14.3396 24.837 0
C 13.9179 24.1065 0
C 15.6049 24.1065 0
C 15.1832 23.376 0
C 16.8702 23.376 0
C 16.4484 22.6455 0
C 18.1354 22.6455 0
C 17.7137 21.915 0
C 19.4007 21.915 0
C 18.9789 21.1845 0
C 20.666 21.1845 0
C 20.2442 20.454 0
C 21.9312 20.454 0
C 21.5095 19.7235 0
C 23.1965 19.7235 0
C 22.7747 18.993 0
C 24.4618 18.993 0
C 24.04 18.2625 0
C 25.727 18.2625 0
C 25.3053 17.532 0
C 26.9923 17.532 0
C 26.5705 16.8015 0
C 28.2575 16.8015 0
C 27.8358 16.071 0
C 29.5228 16.071 0
C 29.1011 15.3405 0
C 30.7881 15.3405 0
C 30.3663 14.61 0
C 32.0533 14.61 0
C 16.4484 24.1065 0
C 18.1354 24.1065 0
C 17.7137 23.376 0
C 19.4007 23.376 0
C 18.9789 22.6455 0
C 20.666 22.6455 0
C 20.2442 21.915 0
C 21.9312 21.915 0
C 21.5095 21.1845 0
C 23.1965 21.1845 0
C 22.7747 20.454 0
C 24.4618 20.454 0
C 24.04 19.7235 0
C 25.727 19.7235 0
C 25.3053 18.993 0
C 26.9923 18.993 0
C 26.5705 18.2625 0
C 28.2575 18.2625 0
C 27.8358 17.532 0
C 29.5228 17.532 0
C 29.1011 16.8015 0
C 30.7881 16.8015 0
C 30.3663 16.071 0
C 32.0533 16.071 0
C 20.2442 23.376 0
C 21.9312 23.376 0
C 21.5095 22.6455 0
C 23.1965 22.6455 0
C 22.7747 21.915 0
C 24.4618 21.915 0
C 24.04 21.1845 0
C 25.727 21.1845 0
C 25.3053 20.454 0
C 26.9923 20.454 0
C 26.5705 19.7235 0
C 28.2575 19.7235 0
C 27.8358 18.993 0
C 29.5228 18.993 0
C 29.1011 18.2625 0
C 30.7881 18.2625 0
C 30.3663 17.532 0
C 32.0533 17.532 0
C 24.04 22.6455 0
C 25.727 22.6455 0
C 25.3053 21.915 0
C 26.9923 21.915 0
C 26.5705 21.1845 0
C 28.2575 21.1845 0
C 27.8358 20.454 0
C 29.5228 20.454 0
C 29.1011 19.7235 0
C 30.7881 19.7235 0
C 30.3663 18.993 0
C 32.0533 18.993 0
C 27.8358 21.915 0
C 29.5228 21.915 0
C 29.1011 21.1845 0
C 30.7881 21.1845 0
C 30.3663 20.454 0
C 32.0533 20.454 0
C 31.6316 21.1845 0
C 33.3186 21.1845 0
