785
graphen_cuted_sheet
C 0.276103 0.797041 0
C 0 0 0
C 1.65662 0.318816 0
C 1.38052 1.75349 0
C 1.10441 0.956449 0
C 2.76103 1.27527 0
C 2.48493 0.478225 0
C 4.14155 0.797041 0
C 5.52206 0.318816 0
C 1.10441 3.18816 0
C 0.828309 2.39112 0
C 2.48493 2.70994 0
C 2.20882 1.9129 0
C 3.86544 2.23171 0
C 3.58934 1.43467 0
C 5.24596 1.75349 0
C 4.96985 0.956449 0
C 6.62647 1.27527 0
C 6.35037 0.478225 0
C 8.00699 0.797041 0
C 9.3875 0.318816 0
C 0.828309 4.62284 0
C 0.552206 3.8258 0
C 2.20882 4.14461 0
C 1.93272 3.34757 0
C 3.58934 3.66639 0
C 3.31324 2.86935 0
C 4.96985 3.18816 0
C 4.69375 2.39112 0
C 6.35037 2.70994 0
C 6.07427 1.9129 0
C 7.73089 2.23171 0
C 7.45478 1.43467 0
C 9.1114 1.75349 0
C 8.8353 0.956449 0
C 10.4919 1.27527 0
C 10.2158 0.478225 0
C 11.8724 0.797041 0
C 13.2529 0.318816 0
C 0.552206 6.05751 0
C 0.276103 5.26047 0
C 1.93272 5.57929 0
C 1.65662 4.78225 0
C 3.31324 5.10106 0
C 3.03713 4.30402 0
C 4.69375 4.62284 0
C 4.41765 3.8258 0
C 6.07427 4.14461 0
C 5.79816 3.34757 0
C 7.45478 3.66639 0
C 7.17868 2.86935 0
C 8.8353 3.18816 0
C 8.55919 2.39112 0
C 10.2158 2.70994 0
C 9.93971 1.9129 0
C 11.5963 2.23171 0
C 11.3202 1.43467 0
C 12.9768 1.75349 0
C 12.7007 0.956449 0
C 14.3574 1.27527 0
C 14.0813 0.478225 0
C 15.7379 0.797041 0
C 17.1184 0.318816 0
C 0.276103 7.49218 0
C 1.65662 7.01396 0
C 1.38052 6.21692 0
C 3.03713 6.53573 0
C 2.76103 5.73869 0
C 4.41765 6.05751 0
C 4.14155 5.26047 0
C 5.79816 5.57929 0
C 5.52206 4.78225 0
C 7.17868 5.10106 0
C 6.90258 4.30402 0
C 8.55919 4.62284 0
C 8.28309 3.8258 0
C 9.93971 4.14461 0
C 9.66361 3.34757 0
C 11.3202 3.66639 0
C 11.0441 2.86935 0
C 12.7007 3.18816 0
C 12.4246 2.39112 0
C 14.0813 2.70994 0
C 13.8052 1.9129 0
C 15.4618 2.23171 0
C 15.1857 1.43467 0
C 16.8423 1.75349 0
C 16.5662 0.956449 0
C 18.2228 1.27527 0
C 17.9467 0.478225 0
C 19.6033 0.797041 0
C 20.9838 0.318816 0
C 1.38052 8.44863 0
C 1.10441 7.65159 0
C 2.76103 7.97041 0
C 2.48493 7.17337 0
C 4.14155 7.49218 0
C 3.86544 6.69514 0
C 5.52206 7.01396 0
C 5.24596 6.21692 0
C 6.90258 6.53573 0
C 6.62647 5.73869 0
C 8.28309 6.05751 0
C 8.00699 5.26047 0
C 9.66361 5.57929 0
C 9.3875 4.78225 0
C 11.0441 5.10106 0
C 10.768 4.30402 0
C 12.4246 4.62284 0
C 12.1485 3.8258 0
C 13.8052 4.14461 0
C 13.529 3.34757 0
C 15.1857 3.66639 0
C 14.9096 2.86935 0
C 16.5662 3.18816 0
C 16.2901 2.39112 0
C 17.9467 2.70994 0
C 17.6706 1.9129 0
C 19.3272 2.23171 0
C 19.0511 1.43467 0
C 20.7077 1.75349 0
C 20.4316 0.956449 0
C 22.0882 1.27527 0
C 21.8121 0.478225 0
C 23.4688 0.797041 0
C 24.8493 0.318816 0
C 1.10441 9.88331 0
C 0.828309 9.08627 0
C 2.48493 9.40508 0
C 2.20882 8.60804 0
C 3.86544 8.92686 0
C 3.58934 8.12982 0
C 5.24596 8.44863 0
C 4.96985 7.65159 0
C 6.62647 7.97041 0
C 6.35037 7.17337 0
C 8.00699 7.49218 0
C 7.73089 6.69514 0
C 9.3875 7.01396 0
C 9.1114 6.21692 0
C 10.768 6.53573 0
C 10.4919 5.73869 0
C 12.1485 6.05751 0
C 11.8724 5.26047 0
C 13.529 5.57929 0
C 13.2529 4.78225 0
C 14.9096 5.10106 0
C 14.6335 4.30402 0
C 16.2901 4.62284 0
C 16.014 3.8258 0
C 17.6706 4.14461 0
C 17.3945 3.34757 0
C 19.0511 3.66639 0
C 18.775 2.86935 0
C 20.4316 3.18816 0
C 20.1555 2.39112 0
C 21.8121 2.70994 0
C 21.536 1.9129 0
C 23.1927 2.23171 0
C 22.9166 1.43467 0
C 24.5732 1.75349 0
C 24.2971 0.956449 0
C 25.9537 1.27527 0
C 25.6776 0.478225 0
C 0.828309 11.318 0
C 0.552206 10.5209 0
C 2.20882 10.8398 0
C 1.93272 10.0427 0
C 3.58934 10.3615 0
C 3.31324 9.56449 0
C 4.96985 9.88331 0
C 4.69375 9.08627 0
C 6.35037 9.40508 0
C 6.07427 8.60804 0
C 7.73089 8.92686 0
C 7.45478 8.12982 0
C 9.1114 8.44863 0
C 8.8353 7.65159 0
C 10.4919 7.97041 0
C 10.2158 7.17337 0
C 11.8724 7.49218 0
C 11.5963 6.69514 0
C 13.2529 7.01396 0
C 12.9768 6.21692 0
C 14.6335 6.53573 0
C 14.3574 5.73869 0
C 16.014 6.05751 0
C 15.7379 5.26047 0
C 17.3945 5.57929 0
C 17.1184 4.78225 0
C 18.775 5.10106 0
C 18.4989 4.30402 0
C 20.1555 4.62284 0
C 19.8794 3.8258 0
C 21.536 4.14461 0
C 21.2599 3.34757 0
C 22.9166 3.66639 0
C 22.6404 2.86935 0
C 24.2971 3.18816 0
C 24.021 2.39112 0
C 25.6776 2.70994 0
C 25.4015 1.9129 0
C 27.0581 2.23171 0
C 26.782 1.43467 0
C 0.552206 12.7527 0
C 0.276103 11.9556 0
C 1.93272 12.2744 0
C 1.65662 11.4774 0
C 3.31324 11.7962 0
C 3.03713 10.9992 0
C 4.69375 11.318 0
C 4.41765 10.5209 0
C 6.07427 10.8398 0
C 5.79816 10.0427 0
C 7.45478 10.3615 0
C 7.17868 9.56449 0
C 8.8353 9.88331 0
C 8.55919 9.08627 0
C 10.2158 9.40508 0
C 9.93971 8.60804 0
C 11.5963 8.92686 0
C 11.3202 8.12982 0
C 12.9768 8.44863 0
C 12.7007 7.65159 0
C 14.3574 7.97041 0
C 14.0813 7.17337 0
C 15.7379 7.49218 0
C 15.4618 6.69514 0
C 17.1184 7.01396 0
C 16.8423 6.21692 0
C 18.4989 6.53573 0
C 18.2228 5.73869 0
C 19.8794 6.05751 0
C 19.6033 5.26047 0
C 21.2599 5.57929 0
C 20.9838 4.78225 0
C 22.6404 5.10106 0
C 22.3643 4.30402 0
C 24.021 4.62284 0
C 23.7449 3.8258 0
C 25.4015 4.14461 0
C 25.1254 3.34757 0
C 26.782 3.66639 0
C 26.5059 2.86935 0
C 0.276103 14.1873 0
C 1.65662 13.7091 0
C 1.38052 12.9121 0
C 3.03713 13.2309 0
C 2.76103 12.4338 0
C 4.41765 12.7527 0
C 4.14155 11.9556 0
C 5.79816 12.2744 0
C 5.52206 11.4774 0
C 7.17868 11.7962 0
C 6.90258 10.9992 0
C 8.55919 11.318 0
C 8.28309 10.5209 0
C 9.93971 10.8398 0
C 9.66361 10.0427 0
C 11.3202 10.3615 0
C 11.0441 9.56449 0
C 12.7007 9.88331 0
C 12.4246 9.08627 0
C 14.0813 9.40508 0
C 13.8052 8.60804 0
C 15.4618 8.92686 0
C 15.1857 8.12982 0
C 16.8423 8.44863 0
C 16.5662 7.65159 0
C 18.2228 7.97041 0
C 17.9467 7.17337 0
C 19.6033 7.49218 0
C 19.3272 6.69514 0
C 20.9838 7.01396 0
C 20.7077 6.21692 0
C 22.3643 6.53573 0
C 22.0882 5.73869 0
C 23.7449 6.05751 0
C 23.4688 5.26047 0
C 25.1254 5.57929 0
C 24.8493 4.78225 0
C 26.5059 5.10106 0
C 26.2298 4.30402 0
C 1.38052 15.1438 0
C 1.10441 14.3467 0
C 2.76103 14.6656 0
C 2.48493 13.8685 0
C 4.14155 14.1873 0
C 3.86544 13.3903 0
C 5.52206 13.7091 0
C 5.24596 12.9121 0
C 6.90258 13.2309 0
C 6.62647 12.4338 0
C 8.28309 12.7527 0
C 8.00699 11.9556 0
C 9.66361 12.2744 0
C 9.3875 11.4774 0
C 11.0441 11.7962 0
C 10.768 10.9992 0
C 12.4246 11.318 0
C 12.1485 10.5209 0
C 13.8052 10.8398 0
C 13.529 10.0427 0
C 15.1857 10.3615 0
C 14.9096 9.56449 0
C 16.5662 9.88331 0
C 16.2901 9.08627 0
C 17.9467 9.40508 0
C 17.6706 8.60804 0
C 19.3272 8.92686 0
C 19.0511 8.12982 0
C 20.7077 8.44863 0
C 20.4316 7.65159 0
C 22.0882 7.97041 0
C 21.8121 7.17337 0
C 23.4688 7.49218 0
C 23.1927 6.69514 0
C 24.8493 7.01396 0
C 24.5732 6.21692 0
C 26.2298 6.53573 0
C 25.9537 5.73869 0
C 1.10441 16.5784 0
C 0.828309 15.7814 0
C 2.48493 16.1002 0
C 2.20882 15.3032 0
C 3.86544 15.622 0
C 3.58934 14.825 0
C 5.24596 15.1438 0
C 4.96985 14.3467 0
C 6.62647 14.6656 0
C 6.35037 13.8685 0
C 8.00699 14.1873 0
C 7.73089 13.3903 0
C 9.3875 13.7091 0
C 9.1114 12.9121 0
C 10.768 13.2309 0
C 10.4919 12.4338 0
C 12.1485 12.7527 0
C 11.8724 11.9556 0
C 13.529 12.2744 0
C 13.2529 11.4774 0
C 14.9096 11.7962 0
C 14.6335 10.9992 0
C 16.2901 11.318 0
C 16.014 10.5209 0
C 17.6706 10.8398 0
C 17.3945 10.0427 0
C 19.0511 10.3615 0
C 18.775 9.56449 0
C 20.4316 9.88331 0
C 20.1555 9.08627 0
C 21.8121 9.40508 0
C 21.536 8.60804 0
C 23.1927 8.92686 0
C 22.9166 8.12982 0
C 24.5732 8.44863 0
C 24.2971 7.65159 0
C 25.9537 7.97041 0
C 25.6776 7.17337 0
C 27.0581 6.69514 0
C 0.828309 18.0131 0
C 0.552206 17.2161 0
C 2.20882 17.5349 0
C 1.93272 16.7379 0
C 3.58934 17.0567 0
C 3.31324 16.2596 0
C 4.96985 16.5784 0
C 4.69375 15.7814 0
C 6.35037 16.1002 0
C 6.07427 15.3032 0
C 7.73089 15.622 0
C 7.45478 14.825 0
C 9.1114 15.1438 0
C 8.8353 14.3467 0
C 10.4919 14.6656 0
C 10.2158 13.8685 0
C 11.8724 14.1873 0
C 11.5963 13.3903 0
C 13.2529 13.7091 0
C 12.9768 12.9121 0
C 14.6335 13.2309 0
C 14.3574 12.4338 0
C 16.014 12.7527 0
C 15.7379 11.9556 0
C 17.3945 12.2744 0
C 17.1184 11.4774 0
C 18.775 11.7962 0
C 18.4989 10.9992 0
C 20.1555 11.318 0
C 19.8794 10.5209 0
C 21.536 10.8398 0
C 21.2599 10.0427 0
C 22.9166 10.3615 0
C 22.6404 9.56449 0
C 24.2971 9.88331 0
C 24.021 9.08627 0
C 25.6776 9.40508 0
C 25.4015 8.60804 0
C 27.0581 8.92686 0
C 26.782 8.12982 0
C 0.552206 19.4478 0
C 0.276103 18.6508 0
C 1.93272 18.9696 0
C 1.65662 18.1725 0
C 3.31324 18.4913 0
C 3.03713 17.6943 0
C 4.69375 18.0131 0
C 4.41765 17.2161 0
C 6.07427 17.5349 0
C 5.79816 16.7379 0
C 7.45478 17.0567 0
C 7.17868 16.2596 0
C 8.8353 16.5784 0
C 8.55919 15.7814 0
C 10.2158 16.1002 0
C 9.93971 15.3032 0
C 11.5963 15.622 0
C 11.3202 14.825 0
C 12.9768 15.1438 0
C 12.7007 14.3467 0
C 14.3574 14.6656 0
C 14.0813 13.8685 0
C 15.7379 14.1873 0
C 15.4618 13.3903 0
C 17.1184 13.7091 0
C 16.8423 12.9121 0
C 18.4989 13.2309 0
C 18.2228 12.4338 0
C 19.8794 12.7527 0
C 19.6033 11.9556 0
C 21.2599 12.2744 0
C 20.9838 11.4774 0
C 22.6404 11.7962 0
C 22.3643 10.9992 0
C 24.021 11.318 0
C 23.7449 10.5209 0
C 25.4015 10.8398 0
C 25.1254 10.0427 0
C 26.782 10.3615 0
C 26.5059 9.56449 0
C 0.276103 20.8825 0
C 1.65662 20.4042 0
C 1.38052 19.6072 0
C 3.03713 19.926 0
C 2.76103 19.129 0
C 4.41765 19.4478 0
C 4.14155 18.6508 0
C 5.79816 18.9696 0
C 5.52206 18.1725 0
C 7.17868 18.4913 0
C 6.90258 17.6943 0
C 8.55919 18.0131 0
C 8.28309 17.2161 0
C 9.93971 17.5349 0
C 9.66361 16.7379 0
C 11.3202 17.0567 0
C 11.0441 16.2596 0
C 12.7007 16.5784 0
C 12.4246 15.7814 0
C 14.0813 16.1002 0
C 13.8052 15.3032 0
C 15.4618 15.622 0
C 15.1857 14.825 0
C 16.8423 15.1438 0
C 16.5662 14.3467 0
C 18.2228 14.6656 0
C 17.9467 13.8685 0
C 19.6033 14.1873 0
C 19.3272 13.3903 0
C 20.9838 13.7091 0
C 20.7077 12.9121 0
C 22.3643 13.2309 0
C 22.0882 12.4338 0
C 23.7449 12.7527 0
C 23.4688 11.9556 0
C 25.1254 12.2744 0
C 24.8493 11.4774 0
C 26.5059 11.7962 0
C 26.2298 10.9992 0
C 1.38052 21.8389 0
C 1.10441 21.0419 0
C 2.76103 21.3607 0
C 2.48493 20.5637 0
C 4.14155 20.8825 0
C 3.86544 20.0854 0
C 5.52206 20.4042 0
C 5.24596 19.6072 0
C 6.90258 19.926 0
C 6.62647 19.129 0
C 8.28309 19.4478 0
C 8.00699 18.6508 0
C 9.66361 18.9696 0
C 9.3875 18.1725 0
C 11.0441 18.4913 0
C 10.768 17.6943 0
C 12.4246 18.0131 0
C 12.1485 17.2161 0
C 13.8052 17.5349 0
C 13.529 16.7379 0
C 15.1857 17.0567 0
C 14.9096 16.2596 0
C 16.5662 16.5784 0
C 16.2901 15.7814 0
C 17.9467 16.1002 0
C 17.6706 15.3032 0
C 19.3272 15.622 0
C 19.0511 14.825 0
C 20.7077 15.1438 0
C 20.4316 14.3467 0
C 22.0882 14.6656 0
C 21.8121 13.8685 0
C 23.4688 14.1873 0
C 23.1927 13.3903 0
C 24.8493 13.7091 0
C 24.5732 12.9121 0
C 26.2298 13.2309 0
C 25.9537 12.4338 0
C 1.10441 23.2736 0
C 0.828309 22.4766 0
C 2.48493 22.7954 0
C 2.20882 21.9983 0
C 3.86544 22.3171 0
C 3.58934 21.5201 0
C 5.24596 21.8389 0
C 4.96985 21.0419 0
C 6.62647 21.3607 0
C 6.35037 20.5637 0
C 8.00699 20.8825 0
C 7.73089 20.0854 0
C 9.3875 20.4042 0
C 9.1114 19.6072 0
C 10.768 19.926 0
C 10.4919 19.129 0
C 12.1485 19.4478 0
C 11.8724 18.6508 0
C 13.529 18.9696 0
C 13.2529 18.1725 0
C 14.9096 18.4913 0
C 14.6335 17.6943 0
C 16.2901 18.0131 0
C 16.014 17.2161 0
C 17.6706 17.5349 0
C 17.3945 16.7379 0
C 19.0511 17.0567 0
C 18.775 16.2596 0
C 20.4316 16.5784 0
C 20.1555 15.7814 0
C 21.8121 16.1002 0
C 21.536 15.3032 0
C 23.1927 15.622 0
C 22.9166 14.825 0
C 24.5732 15.1438 0
C 24.2971 14.3467 0
C 25.9537 14.6656 0
C 25.6776 13.8685 0
C 27.0581 13.3903 0
C 0.828309 24.7083 0
C 0.552206 23.9112 0
C 2.20882 24.23 0
C 1.93272 23.433 0
C 3.58934 23.7518 0
C 3.31324 22.9548 0
C 4.96985 23.2736 0
C 4.69375 22.4766 0
C 6.35037 22.7954 0
C 6.07427 21.9983 0
C 7.73089 22.3171 0
C 7.45478 21.5201 0
C 9.1114 21.8389 0
C 8.8353 21.0419 0
C 10.4919 21.3607 0
C 10.2158 20.5637 0
C 11.8724 20.8825 0
C 11.5963 20.0854 0
C 13.2529 20.4042 0
C 12.9768 19.6072 0
C 14.6335 19.926 0
C 14.3574 19.129 0
C 16.014 19.4478 0
C 15.7379 18.6508 0
C 17.3945 18.9696 0
C 17.1184 18.1725 0
C 18.775 18.4913 0
C 18.4989 17.6943 0
C 20.1555 18.0131 0
C 19.8794 17.2161 0
C 21.536 17.5349 0
C 21.2599 16.7379 0
C 22.9166 17.0567 0
C 22.6404 16.2596 0
C 24.2971 16.5784 0
C 24.021 15.7814 0
C 25.6776 16.1002 0
C 25.4015 15.3032 0
C 27.0581 15.622 0
C 26.782 14.825 0
C 0.552206 26.1429 0
C 0.276103 25.3459 0
C 1.93272 25.6647 0
C 1.65662 24.8677 0
C 3.31324 25.1865 0
C 3.03713 24.3894 0
C 4.69375 24.7083 0
C 4.41765 23.9112 0
C 6.07427 24.23 0
C 5.79816 23.433 0
C 7.45478 23.7518 0
C 7.17868 22.9548 0
C 8.8353 23.2736 0
C 8.55919 22.4766 0
C 10.2158 22.7954 0
C 9.93971 21.9983 0
C 11.5963 22.3171 0
C 11.3202 21.5201 0
C 12.9768 21.8389 0
C 12.7007 21.0419 0
C 14.3574 21.3607 0
C 14.0813 20.5637 0
C 15.7379 20.8825 0
C 15.4618 20.0854 0
C 17.1184 20.4042 0
C 16.8423 19.6072 0
C 18.4989 19.926 0
C 18.2228 19.129 0
C 19.8794 19.4478 0
C 19.6033 18.6508 0
C 21.2599 18.9696 0
C 20.9838 18.1725 0
C 22.6404 18.4913 0
C 22.3643 17.6943 0
C 24.021 18.0131 0
C 23.7449 17.2161 0
C 25.4015 17.5349 0
C 25.1254 16.7379 0
C 26.782 17.0567 0
C 26.5059 16.2596 0
C 1.38052 26.3023 0
C 3.03713 26.6212 0
C 2.76103 25.8241 0
C 4.41765 26.1429 0
C 4.14155 25.3459 0
C 5.79816 25.6647 0
C 5.52206 24.8677 0
C 7.17868 25.1865 0
C 6.90258 24.3894 0
C 8.55919 24.7083 0
C 8.28309 23.9112 0
C 9.93971 24.23 0
C 9.66361 23.433 0
C 11.3202 23.7518 0
C 11.0441 22.9548 0
C 12.7007 23.2736 0
C 12.4246 22.4766 0
C 14.0813 22.7954 0
C 13.8052 21.9983 0
C 15.4618 22.3171 0
C 15.1857 21.5201 0
C 16.8423 21.8389 0
C 16.5662 21.0419 0
C 18.2228 21.3607 0
C 17.9467 20.5637 0
C 19.6033 20.8825 0
C 19.3272 20.0854 0
C 20.9838 20.4042 0
C 20.7077 19.6072 0
C 22.3643 19.926 0
C 22.0882 19.129 0
C 23.7449 19.4478 0
C 23.4688 18.6508 0
C 25.1254 18.9696 0
C 24.8493 18.1725 0
C 26.5059 18.4913 0
C 26.2298 17.6943 0
C 3.86544 26.7806 0
C 5.24596 26.3023 0
C 6.90258 26.6212 0
C 6.62647 25.8241 0
C 8.28309 26.1429 0
C 8.00699 25.3459 0
C 9.66361 25.6647 0
C 9.3875 24.8677 0
C 11.0441 25.1865 0
C 10.768 24.3894 0
C 12.4246 24.7083 0
C 12.1485 23.9112 0
C 13.8052 24.23 0
C 13.529 23.433 0
C 15.1857 23.7518 0
C 14.9096 22.9548 0
C 16.5662 23.2736 0
C 16.2901 22.4766 0
C 17.9467 22.7954 0
C 17.6706 21.9983 0
C 19.3272 22.3171 0
C 19.0511 21.5201 0
C 20.7077 21.8389 0
C 20.4316 21.0419 0
C 22.0882 21.3607 0
C 21.8121 20.5637 0
C 23.4688 20.8825 0
C 23.1927 20.0854 0
C 24.8493 20.4042 0
C 24.5732 19.6072 0
C 26.2298 19.926 0
C 25.9537 19.129 0
C 7.73089 26.7806 0
C 9.1114 26.3023 0
C 10.768 26.6212 0
C 10.4919 25.8241 0
C 12.1485 26.1429 0
C 11.8724 25.3459 0
C 13.529 25.6647 0
C 13.2529 24.8677 0
C 14.9096 25.1865 0
C 14.6335 24.3894 0
C 16.2901 24.7083 0
C 16.014 23.9112 0
C 17.6706 24.23 0
C 17.3945 23.433 0
C 19.0511 23.7518 0
C 18.775 22.9548 0
C 20.4316 23.2736 0
C 20.1555 22.4766 0
C 21.8121 22.7954 0
C 21.536 21.9983 0
C 23.1927 22.3171 0
C 22.9166 21.5201 0
C 24.5732 21.8389 0
C 24.2971 21.0419 0
C 25.9537 21.3607 0
C 25.6776 20.5637 0
C 27.0581 20.0854 0
C 11.5963 26.7806 0
C 12.9768 26.3023 0
C 14.6335 26.6212 0
C 14.3574 25.8241 0
C 16.014 26.1429 0
C 15.7379 25.3459 0
C 17.3945 25.6647 0
C 17.1184 24.8677 0
C 18.775 25.1865 0
C 18.4989 24.3894 0
C 20.1555 24.7083 0
C 19.8794 23.9112 0
C 21.536 24.23 0
C 21.2599 23.433 0
C 22.9166 23.7518 0
C 22.6404 22.9548 0
C 24.2971 23.2736 0
C 24.021 22.4766 0
C 25.6776 22.7954 0
C 25.4015 21.9983 0
C 27.0581 22.3171 0
C 26.782 21.5201 0
C 15.4618 26.7806 0
C 16.8423 26.3023 0
C 18.4989 26.6212 0
C 18.2228 25.8241 0
C 19.8794 26.1429 0
C 19.6033 25.3459 0
C 21.2599 25.6647 0
C 20.9838 24.8677 0
C 22.6404 25.1865 0
C 22.3643 24.3894 0
C 24.021 24.7083 0
C 23.7449 23.9112 0
C 25.4015 24.23 0
C 25.1254 23.433 0
C 26.782 23.7518 0
C 26.5059 22.9548 0
C 19.3272 26.7806 0
C 20.7077 26.3023 0
C 22.3643 26.6212 0
C 22.0882 25.8241 0
C 23.7449 26.1429 0
C 23.4688 25.3459 0
C 25.1254 25.6647 0
C 24.8493 24.8677 0
C 26.5059 25.1865 0
C 26.2298 24.3894 0
C 23.1927 26.7806 0
C 24.5732 26.3023 0
C 26.2298 26.6212 0
C 25.9537 25.8241 0
C 27.0581 26.7806 0
